<?xml version="1.0" encoding="UTF-8"?>

<!-- generated on Thu Apr  6 23:07:00 2017 by SUMO netconvert Version 0.29.0
<?xml version="1.0" encoding="UTF-8"?>

<configuration xmlns:xsi="http://www.w3.org/2001/XMLSchema-instance" xsi:noNamespaceSchemaLocation="http://sumo.dlr.de/xsd/netconvertConfiguration.xsd">

    <input>
        <type-files value="/Users/nhong/workspace/sumo/tools/../data/typemap/osmNetconvert.typ.xml"/>
        <osm-files value="osm_bbox.osm.xml"/>
    </input>

    <output>
        <output-file value="/Users/nhong/workspace/sumo/2017-04-06-23-06-52/osm.net.xml"/>
        <output.street-names value="true"/>
        <output.original-names value="true"/>
    </output>

    <projection>
        <proj.utm value="true"/>
    </projection>

    <tls_building>
        <tls.discard-simple value="true"/>
        <tls.join value="true"/>
        <tls.guess-signals value="true"/>
    </tls_building>

    <ramp_guessing>
        <ramps.guess value="true"/>
    </ramp_guessing>

    <processing>
        <geometry.remove value="true"/>
        <roundabouts.guess value="true"/>
        <junctions.join value="true"/>
        <junctions.corner-detail value="5"/>
    </processing>

    <report>
        <verbose value="true"/>
    </report>

</configuration>
-->

<net version="0.27" junctionCornerDetail="5" xmlns:xsi="http://www.w3.org/2001/XMLSchema-instance" xsi:noNamespaceSchemaLocation="http://sumo.dlr.de/xsd/net_file.xsd">

    <location netOffset="-489639.21,-5451044.93" convBoundary="0.00,0.00,2480.70,8349.00" origBoundary="-123.142471,49.212136,-123.108336,49.287237" projParameter="+proj=utm +zone=10 +ellps=WGS84 +datum=WGS84 +units=m +no_defs"/>

    <type id="highway.bridleway" priority="1" numLanes="1" speed="2.78" allow="pedestrian" oneway="1" width="2.00"/>
    <type id="highway.bus_guideway" priority="1" numLanes="1" speed="8.33" allow="bus" oneway="1"/>
    <type id="highway.cycleway" priority="1" numLanes="1" speed="5.56" allow="bicycle" oneway="0" width="1.00"/>
    <type id="highway.footway" priority="1" numLanes="1" speed="2.78" allow="pedestrian" oneway="1" width="2.00"/>
    <type id="highway.ford" priority="1" numLanes="1" speed="2.78" allow="army" oneway="0"/>
    <type id="highway.living_street" priority="3" numLanes="1" speed="2.78" disallow="tram rail_urban rail rail_electric ship" oneway="0"/>
    <type id="highway.motorway" priority="13" numLanes="2" speed="44.44" allow="private emergency authority army vip passenger hov taxi bus coach delivery truck trailer motorcycle evehicle custom1 custom2" oneway="1"/>
    <type id="highway.motorway_link" priority="12" numLanes="1" speed="22.22" allow="private emergency authority army vip passenger hov taxi bus coach delivery truck trailer motorcycle evehicle custom1 custom2" oneway="1"/>
    <type id="highway.path" priority="1" numLanes="1" speed="2.78" allow="bicycle pedestrian" oneway="1" width="2.00"/>
    <type id="highway.pedestrian" priority="1" numLanes="1" speed="2.78" allow="pedestrian" oneway="1" width="2.00"/>
    <type id="highway.primary" priority="9" numLanes="2" speed="27.78" disallow="tram rail_urban rail rail_electric ship" oneway="0"/>
    <type id="highway.primary_link" priority="8" numLanes="1" speed="22.22" disallow="tram rail_urban rail rail_electric ship" oneway="0"/>
    <type id="highway.raceway" priority="14" numLanes="2" speed="83.33" allow="vip" oneway="0"/>
    <type id="highway.residential" priority="4" numLanes="1" speed="13.89" disallow="tram rail_urban rail rail_electric ship" oneway="0"/>
    <type id="highway.secondary" priority="7" numLanes="2" speed="27.78" disallow="tram rail_urban rail rail_electric ship" oneway="0"/>
    <type id="highway.secondary_link" priority="6" numLanes="1" speed="22.22" disallow="tram rail_urban rail rail_electric ship" oneway="0"/>
    <type id="highway.service" priority="2" numLanes="1" speed="5.56" allow="delivery bicycle pedestrian" oneway="0"/>
    <type id="highway.services" priority="1" numLanes="1" speed="8.33" disallow="tram rail_urban rail rail_electric ship" oneway="0"/>
    <type id="highway.stairs" priority="1" numLanes="1" speed="1.39" allow="pedestrian" oneway="1" width="2.00"/>
    <type id="highway.step" priority="1" numLanes="1" speed="1.39" allow="pedestrian" oneway="1" width="2.00"/>
    <type id="highway.steps" priority="1" numLanes="1" speed="1.39" allow="pedestrian" oneway="1" width="2.00"/>
    <type id="highway.tertiary" priority="6" numLanes="1" speed="22.22" disallow="tram rail_urban rail rail_electric ship" oneway="0"/>
    <type id="highway.tertiary_link" priority="5" numLanes="1" speed="22.22" disallow="tram rail_urban rail rail_electric ship" oneway="0"/>
    <type id="highway.track" priority="1" numLanes="1" speed="5.56" disallow="tram rail_urban rail rail_electric ship" oneway="0"/>
    <type id="highway.trunk" priority="11" numLanes="2" speed="27.78" disallow="tram rail_urban rail rail_electric bicycle pedestrian ship" oneway="0"/>
    <type id="highway.trunk_link" priority="10" numLanes="1" speed="22.22" disallow="tram rail_urban rail rail_electric bicycle pedestrian ship" oneway="0"/>
    <type id="highway.unclassified" priority="5" numLanes="1" speed="13.89" disallow="tram rail_urban rail rail_electric ship" oneway="0"/>
    <type id="highway.unsurfaced" priority="1" numLanes="1" speed="8.33" disallow="tram rail_urban rail rail_electric ship" oneway="0"/>
    <type id="railway.light_rail" priority="15" numLanes="1" speed="27.78" allow="rail_urban" oneway="1"/>
    <type id="railway.preserved" priority="15" numLanes="1" speed="27.78" allow="rail" oneway="1"/>
    <type id="railway.rail" priority="15" numLanes="1" speed="83.33" allow="rail rail_electric" oneway="1"/>
    <type id="railway.subway" priority="15" numLanes="1" speed="27.78" allow="rail_urban" oneway="1"/>
    <type id="railway.tram" priority="15" numLanes="1" speed="13.89" allow="tram" oneway="1"/>

    <edge id=":1308502559_0" function="internal">
        <lane id=":1308502559_0_0" index="0" disallow="tram rail_urban rail rail_electric ship" speed="9.73" length="4.96" shape="736.74,7061.38 735.94,7062.45 735.67,7063.54 735.95,7064.63 736.77,7065.72"/>
    </edge>
    <edge id=":1308502559_1" function="internal">
        <lane id=":1308502559_1_0" index="0" allow="delivery bicycle pedestrian" speed="5.56" length="6.15" shape="736.74,7061.38 732.39,7065.71"/>
    </edge>
    <edge id=":1308502559_2" function="internal">
        <lane id=":1308502559_2_0" index="0" allow="delivery bicycle pedestrian" speed="5.56" length="4.82" shape="736.74,7061.38 735.28,7061.64 734.41,7061.32 734.14,7060.44 734.46,7058.99"/>
    </edge>
    <edge id=":1308502559_3" function="internal">
        <lane id=":1308502559_3_0" index="0" allow="delivery bicycle pedestrian" speed="9.73" length="5.00" shape="730.09,7058.97 731.17,7059.81 732.26,7060.09 733.36,7059.82 734.46,7058.99"/>
    </edge>
    <edge id=":1308502559_4" function="internal">
        <lane id=":1308502559_4_0" index="0" disallow="tram rail_urban rail rail_electric ship" speed="13.89" length="9.50" shape="730.09,7058.97 736.77,7065.72"/>
    </edge>
    <edge id=":1308502559_5" function="internal">
        <lane id=":1308502559_5_0" index="0" allow="delivery bicycle pedestrian" speed="9.73" length="7.83" shape="730.09,7058.97 731.90,7061.12 732.89,7062.96 733.05,7064.49 732.39,7065.71"/>
    </edge>
    <edge id=":1308502559_6" function="internal">
        <lane id=":1308502559_6_0" index="0" allow="delivery bicycle pedestrian" speed="5.56" length="6.21" shape="730.06,7063.37 734.46,7058.99"/>
    </edge>
    <edge id=":1308502559_7" function="internal">
        <lane id=":1308502559_7_0" index="0" disallow="tram rail_urban rail rail_electric ship" speed="9.73" length="7.84" shape="730.06,7063.37 731.30,7062.70 732.84,7062.87 734.66,7063.88 736.77,7065.72"/>
    </edge>
    <edge id=":1308502559_8" function="internal">
        <lane id=":1308502559_8_0" index="0" allow="delivery bicycle pedestrian" speed="5.56" length="4.82" shape="730.06,7063.37 731.52,7063.08 732.40,7063.38 732.68,7064.26 732.39,7065.71"/>
    </edge>
    <edge id=":1308502563_0" function="internal">
        <lane id=":1308502563_0_0" index="0" disallow="tram rail_urban rail rail_electric ship" speed="13.89" length="3.38" shape="922.50,7247.42 921.66,7248.21 921.23,7248.94 921.21,7249.61 921.59,7250.22"/>
    </edge>
    <edge id=":1308502563_1" function="internal">
        <lane id=":1308502563_1_0" index="0" allow="bicycle" speed="5.56" length="8.64" width="1.00" shape="922.50,7247.42 920.51,7249.04 919.21,7250.22 917.98,7251.47 916.18,7253.30"/>
    </edge>
    <edge id=":1308502563_2" function="internal">
        <lane id=":1308502563_2_0" index="0" allow="bicycle" speed="5.56" length="1.61" width="1.00" shape="922.50,7247.42 922.00,7247.46 921.72,7247.33 921.66,7247.03 921.81,7246.56"/>
    </edge>
    <edge id=":1308502563_3" function="internal">
        <lane id=":1308502563_3_0" index="0" allow="bicycle" speed="13.89" length="4.66" width="1.00" shape="917.63,7246.28 918.65,7247.05 919.68,7247.35 920.74,7247.19 921.81,7246.56"/>
    </edge>
    <edge id=":1308502563_4" function="internal">
        <lane id=":1308502563_4_0" index="0" disallow="tram rail_urban rail rail_electric ship" speed="22.22" length="5.57" shape="917.63,7246.28 921.59,7250.22"/>
    </edge>
    <edge id=":1308502563_5" function="internal">
        <lane id=":1308502563_5_0" index="0" allow="bicycle" speed="13.89" length="8.07" width="1.00" shape="917.63,7246.28 918.59,7247.76 918.66,7249.43 917.86,7251.27 916.18,7253.30"/>
    </edge>
    <edge id=":1308502563_6" function="internal">
        <lane id=":1308502563_6_0" index="0" allow="bicycle" speed="5.56" length="8.77" width="1.00" shape="915.40,7252.52 917.23,7250.67 918.48,7249.40 919.80,7248.20 921.81,7246.56"/>
    </edge>
    <edge id=":1308502563_7" function="internal">
        <lane id=":1308502563_7_0" index="0" disallow="tram rail_urban rail rail_electric ship" speed="13.89" length="7.25" shape="915.40,7252.52 917.38,7250.79 919.07,7249.83 920.47,7249.64 921.59,7250.22"/>
    </edge>
    <edge id=":1308502563_8" function="internal">
        <lane id=":1308502563_8_0" index="0" allow="bicycle" speed="5.56" length="1.61" width="1.00" shape="915.40,7252.52 915.89,7252.43 916.18,7252.52 916.28,7252.82 916.18,7253.30"/>
    </edge>
    <edge id=":1308502637_0" function="internal">
        <lane id=":1308502637_0_0" index="0" allow="bicycle" speed="5.56" length="5.27" width="1.00" shape="735.54,7226.74 734.40,7225.67 733.56,7225.00 732.64,7224.45 731.26,7223.73"/>
    </edge>
    <edge id=":1308502653_0" function="internal">
        <lane id=":1308502653_0_0" index="0" allow="delivery bicycle pedestrian" speed="5.56" length="5.01" shape="700.70,7101.55 699.61,7100.71 698.52,7100.42 697.42,7100.69 696.32,7101.51"/>
    </edge>
    <edge id=":1308502653_1" function="internal">
        <lane id=":1308502653_1_0" index="0" allow="delivery bicycle pedestrian" speed="5.56" length="10.32" shape="700.70,7101.55 699.03,7099.25 698.48,7096.98 699.05,7094.72 700.74,7092.47"/>
    </edge>
    <edge id=":1308502653_2" function="internal">
        <lane id=":1308502653_2_0" index="0" allow="delivery bicycle pedestrian" speed="5.56" length="4.82" shape="700.70,7101.55 700.43,7100.09 700.74,7099.22 701.62,7098.94 703.07,7099.25"/>
    </edge>
    <edge id=":1308502653_3" function="internal">
        <lane id=":1308502653_3_0" index="0" allow="delivery bicycle pedestrian" speed="5.56" length="5.05" shape="703.06,7094.81 702.24,7095.91 701.97,7097.01 702.25,7098.13 703.07,7099.25"/>
    </edge>
    <edge id=":1308502653_4" function="internal">
        <lane id=":1308502653_4_0" index="0" allow="delivery bicycle pedestrian" speed="5.56" length="9.50" shape="703.06,7094.81 696.32,7101.51"/>
    </edge>
    <edge id=":1308502653_5" function="internal">
        <lane id=":1308502653_5_0" index="0" allow="delivery bicycle pedestrian" speed="5.56" length="4.82" shape="703.06,7094.81 701.60,7095.10 700.73,7094.81 700.44,7093.93 700.74,7092.47"/>
    </edge>
    <edge id=":1308502653_6" function="internal">
        <lane id=":1308502653_6_0" index="0" allow="delivery bicycle pedestrian" speed="5.56" length="9.50" shape="693.99,7099.17 700.74,7092.47"/>
    </edge>
    <edge id=":1308502653_7" function="internal">
        <lane id=":1308502653_7_0" index="0" allow="delivery bicycle pedestrian" speed="5.56" length="10.38" shape="693.99,7099.17 696.28,7097.46 698.55,7096.91 700.82,7097.51 703.07,7099.25"/>
    </edge>
    <edge id=":1308502653_8" function="internal">
        <lane id=":1308502653_8_0" index="0" allow="delivery bicycle pedestrian" speed="5.56" length="4.82" shape="693.99,7099.17 695.45,7098.88 696.33,7099.17 696.61,7100.05 696.32,7101.51"/>
    </edge>
    <edge id=":1308502675_0" function="internal">
        <lane id=":1308502675_0_0" index="0" allow="bicycle" speed="5.56" length="3.39" width="1.00" shape="839.45,7330.07 838.86,7330.19 838.18,7329.68 837.50,7328.91 836.91,7328.21"/>
    </edge>
    <edge id=":1308502675_1" function="internal">
        <lane id=":1308502675_1_0" index="0" allow="bicycle" speed="5.56" length="2.03" width="1.00" shape="839.45,7330.07 838.88,7329.80 838.66,7329.49 838.77,7329.12 839.24,7328.70"/>
    </edge>
    <edge id=":1308502747_0" function="internal">
        <lane id=":1308502747_0_0" index="0" allow="delivery bicycle pedestrian" speed="5.56" length="4.16" shape="740.41,7062.11 739.37,7061.22 738.43,7060.79 737.58,7060.82 736.81,7061.30"/>
    </edge>
    <edge id=":1308502747_1" function="internal">
        <lane id=":1308502747_1_0" index="0" allow="bicycle" speed="5.56" length="9.54" width="1.00" shape="740.41,7062.11 733.79,7055.22"/>
    </edge>
    <edge id=":1308502747_2" function="internal">
        <lane id=":1308502747_2_0" index="0" allow="delivery bicycle pedestrian" speed="5.56" length="7.91" shape="740.41,7062.11 738.60,7059.95 737.62,7058.09 737.48,7056.54 738.18,7055.28"/>
    </edge>
    <edge id=":1308502747_3" function="internal">
        <lane id=":1308502747_3_0" index="0" allow="bicycle" speed="5.56" length="1.61" width="1.00" shape="740.41,7062.11 740.32,7061.62 740.42,7061.33 740.71,7061.24 741.20,7061.34"/>
    </edge>
    <edge id=":1308502747_4" function="internal">
        <lane id=":1308502747_4_0" index="0" allow="bicycle" speed="5.56" length="4.26" width="1.00" shape="740.51,7057.61 740.00,7058.40 739.94,7059.29 740.34,7060.27 741.20,7061.34"/>
    </edge>
    <edge id=":1308502747_5" function="internal">
        <lane id=":1308502747_5_0" index="0" allow="delivery bicycle pedestrian" speed="5.56" length="5.22" shape="740.51,7057.61 736.81,7061.30"/>
    </edge>
    <edge id=":1308502747_6" function="internal">
        <lane id=":1308502747_6_0" index="0" allow="bicycle" speed="5.56" length="3.00" width="1.00" shape="740.51,7057.61 739.24,7058.31 737.69,7058.15"/>
    </edge>
    <edge id=":1308502747_7" function="internal">
        <lane id=":1308502747_7_0" index="0" allow="delivery bicycle pedestrian" speed="5.56" length="2.41" shape="740.51,7057.61 739.05,7057.90 738.18,7057.61"/>
    </edge>
    <edge id=":1308502747_16" function="internal">
        <lane id=":1308502747_16_0" index="0" speed="5.56" length="4.90" width="1.00" shape="737.69,7058.15 735.88,7057.12 733.79,7055.22"/>
    </edge>
    <edge id=":1308502747_17" function="internal">
        <lane id=":1308502747_17_0" index="0" speed="5.56" length="2.41" shape="738.18,7057.61 737.88,7056.74 738.18,7055.28"/>
    </edge>
    <edge id=":1308502747_8" function="internal">
        <lane id=":1308502747_8_0" index="0" allow="delivery bicycle pedestrian" speed="5.56" length="4.16" shape="734.59,7054.46 735.62,7055.36 736.56,7055.79 737.41,7055.77 738.18,7055.28"/>
    </edge>
    <edge id=":1308502747_9" function="internal">
        <lane id=":1308502747_9_0" index="0" allow="bicycle" speed="5.56" length="9.54" width="1.00" shape="734.59,7054.46 741.20,7061.34"/>
    </edge>
    <edge id=":1308502747_10" function="internal">
        <lane id=":1308502747_10_0" index="0" allow="delivery bicycle pedestrian" speed="5.56" length="7.91" shape="734.59,7054.46 736.39,7056.63 737.36,7058.49 737.50,7060.05 736.81,7061.30"/>
    </edge>
    <edge id=":1308502747_11" function="internal">
        <lane id=":1308502747_11_0" index="0" allow="bicycle" speed="5.56" length="1.61" width="1.00" shape="734.59,7054.46 734.67,7054.95 734.57,7055.24 734.28,7055.33 733.79,7055.22"/>
    </edge>
    <edge id=":1308502747_12" function="internal">
        <lane id=":1308502747_12_0" index="0" allow="bicycle" speed="5.56" length="4.22" width="1.00" shape="734.53,7058.92 735.02,7058.15 735.06,7057.28 734.65,7056.31 733.79,7055.22"/>
    </edge>
    <edge id=":1308502747_13" function="internal">
        <lane id=":1308502747_13_0" index="0" allow="delivery bicycle pedestrian" speed="5.56" length="5.15" shape="734.53,7058.92 738.18,7055.28"/>
    </edge>
    <edge id=":1308502747_14" function="internal">
        <lane id=":1308502747_14_0" index="0" allow="bicycle" speed="5.56" length="2.95" width="1.00" shape="734.53,7058.92 735.77,7058.25 737.30,7058.43"/>
    </edge>
    <edge id=":1308502747_15" function="internal">
        <lane id=":1308502747_15_0" index="0" allow="delivery bicycle pedestrian" speed="5.56" length="2.41" shape="734.53,7058.92 736.00,7058.66 736.86,7058.97"/>
    </edge>
    <edge id=":1308502747_18" function="internal">
        <lane id=":1308502747_18_0" index="0" speed="5.56" length="4.90" width="1.00" shape="737.30,7058.43 739.11,7059.46 741.20,7061.34"/>
    </edge>
    <edge id=":1308502747_19" function="internal">
        <lane id=":1308502747_19_0" index="0" speed="5.56" length="2.41" shape="736.86,7058.97 737.14,7059.85 736.81,7061.30"/>
    </edge>
    <edge id=":1308502767_0" function="internal">
        <lane id=":1308502767_0_0" index="0" disallow="tram rail_urban rail rail_electric ship" speed="9.73" length="4.16" shape="806.12,7295.81 805.09,7294.91 804.15,7294.47 803.29,7294.50 802.53,7294.99"/>
    </edge>
    <edge id=":1308502767_1" function="internal">
        <lane id=":1308502767_1_0" index="0" allow="bicycle" speed="5.56" length="9.52" width="1.00" shape="806.12,7295.81 799.45,7289.02"/>
    </edge>
    <edge id=":1308502767_2" function="internal">
        <lane id=":1308502767_2_0" index="0" disallow="tram rail_urban rail rail_electric ship" speed="9.73" length="6.61" shape="806.12,7295.81 805.13,7294.78 803.68,7293.18 802.50,7291.57 802.30,7290.56"/>
    </edge>
    <edge id=":1308502767_3" function="internal">
        <lane id=":1308502767_3_0" index="0" disallow="tram rail_urban rail rail_electric ship" speed="13.89" length="3.02" shape="804.67,7292.86 802.53,7294.99"/>
    </edge>
    <edge id=":1308502767_4" function="internal">
        <lane id=":1308502767_4_0" index="0" allow="bicycle" speed="9.73" length="1.88" width="1.00" shape="804.67,7292.86 803.65,7292.65 802.97,7292.15"/>
    </edge>
    <edge id=":1308502767_5" function="internal">
        <lane id=":1308502767_5_0" index="0" disallow="tram rail_urban rail rail_electric ship" speed="13.89" length="2.41" shape="804.67,7292.86 803.21,7293.17 802.33,7292.89"/>
    </edge>
    <edge id=":1308502767_9" function="internal">
        <lane id=":1308502767_9_0" index="0" speed="9.73" length="4.72" width="1.00" shape="802.97,7292.15 802.06,7291.46 800.47,7290.01 799.45,7289.02"/>
    </edge>
    <edge id=":1308502767_10" function="internal">
        <lane id=":1308502767_10_0" index="0" speed="13.89" length="2.41" shape="802.33,7292.89 802.03,7292.02 802.30,7290.56"/>
    </edge>
    <edge id=":1308502767_6" function="internal">
        <lane id=":1308502767_6_0" index="0" allow="bicycle" speed="9.73" length="4.20" width="1.00" shape="800.20,7292.66 800.70,7291.88 800.74,7291.02 800.33,7290.06 799.45,7289.02"/>
    </edge>
    <edge id=":1308502767_7" function="internal">
        <lane id=":1308502767_7_0" index="0" disallow="tram rail_urban rail rail_electric ship" speed="13.89" length="2.97" shape="800.20,7292.66 802.30,7290.56"/>
    </edge>
    <edge id=":1308502767_8" function="internal">
        <lane id=":1308502767_8_0" index="0" disallow="tram rail_urban rail rail_electric ship" speed="13.89" length="2.41" shape="800.20,7292.66 801.65,7292.37 802.53,7292.66"/>
    </edge>
    <edge id=":1308502767_11" function="internal">
        <lane id=":1308502767_11_0" index="0" speed="13.89" length="2.41" shape="802.53,7292.66 802.82,7293.53 802.53,7294.99"/>
    </edge>
    <edge id=":1308502783_0" function="internal">
        <lane id=":1308502783_0_0" index="0" allow="delivery bicycle pedestrian" speed="5.56" length="4.82" shape="663.19,7134.40 661.73,7134.68 660.85,7134.39 660.56,7133.51 660.86,7132.05"/>
    </edge>
    <edge id=":1308502899_0" function="internal">
        <lane id=":1308502899_0_0" index="0" allow="bicycle" speed="9.72" length="3.40" width="1.00" shape="842.30,7327.98 841.70,7327.87 841.00,7328.35 840.31,7329.11 839.71,7329.79"/>
    </edge>
    <edge id=":1308502899_1" function="internal">
        <lane id=":1308502899_1_0" index="0" disallow="tram rail_urban rail rail_electric ship" speed="13.89" length="8.65" shape="842.30,7327.98 836.21,7321.85"/>
        <lane id=":1308502899_1_1" index="1" disallow="tram rail_urban rail rail_electric ship" speed="13.89" length="8.65" shape="844.64,7325.66 838.55,7319.52"/>
    </edge>
    <edge id=":1308502899_3" function="internal">
        <lane id=":1308502899_3_0" index="0" allow="bicycle" speed="9.72" length="2.16" width="1.00" shape="844.64,7325.66 844.50,7324.65 845.03,7323.64"/>
    </edge>
    <edge id=":1308502899_4" function="internal">
        <lane id=":1308502899_4_0" index="0" disallow="tram rail_urban rail rail_electric ship" speed="13.89" length="2.41" shape="844.64,7325.66 844.33,7324.20 844.62,7323.33"/>
    </edge>
    <edge id=":1308502899_18" function="internal">
        <lane id=":1308502899_18_0" index="0" speed="9.72" length="8.07" width="1.00" shape="845.03,7323.64 845.39,7322.96 847.33,7320.60 850.30,7317.56"/>
    </edge>
    <edge id=":1308502899_19" function="internal">
        <lane id=":1308502899_19_0" index="0" speed="13.89" length="2.41" shape="844.62,7323.33 845.49,7323.02 846.95,7323.30"/>
    </edge>
    <edge id=":1308502899_5" function="internal">
        <lane id=":1308502899_5_0" index="0" disallow="tram rail_urban rail rail_electric ship" speed="9.72" length="3.40" shape="851.06,7318.35 850.38,7318.95 849.64,7319.66 849.17,7320.36 849.29,7320.97"/>
    </edge>
    <edge id=":1308502899_6" function="internal">
        <lane id=":1308502899_6_0" index="0" allow="bicycle" speed="5.56" length="16.12" width="1.00" shape="851.06,7318.35 839.71,7329.79"/>
    </edge>
    <edge id=":1308502899_7" function="internal">
        <lane id=":1308502899_7_0" index="0" disallow="tram rail_urban rail rail_electric ship" speed="9.72" length="14.25" shape="851.06,7318.35 847.67,7320.95 844.45,7322.02 841.41,7321.54 838.55,7319.52"/>
    </edge>
    <edge id=":1308502899_8" function="internal">
        <lane id=":1308502899_8_0" index="0" allow="bicycle" speed="5.56" length="1.61" width="1.00" shape="851.06,7318.35 850.57,7318.44 850.28,7318.34 850.19,7318.04 850.30,7317.56"/>
    </edge>
    <edge id=":1308502899_9" function="internal">
        <lane id=":1308502899_9_0" index="0" allow="bicycle" speed="9.72" length="8.28" width="1.00" shape="843.24,7314.87 845.48,7316.86 847.41,7317.97 849.02,7318.20 850.30,7317.56"/>
    </edge>
    <edge id=":1308502899_10" function="internal">
        <lane id=":1308502899_10_0" index="0" disallow="tram rail_urban rail rail_electric ship" speed="13.89" length="8.60" shape="843.24,7314.87 849.29,7320.97"/>
        <lane id=":1308502899_10_1" index="1" disallow="tram rail_urban rail rail_electric ship" speed="13.89" length="8.60" shape="840.89,7317.20 846.95,7323.30"/>
    </edge>
    <edge id=":1308502899_12" function="internal">
        <lane id=":1308502899_12_0" index="0" allow="bicycle" speed="9.72" length="5.35" width="1.00" shape="840.89,7317.20 842.89,7320.07 843.17,7321.90"/>
    </edge>
    <edge id=":1308502899_13" function="internal">
        <lane id=":1308502899_13_0" index="0" disallow="tram rail_urban rail rail_electric ship" speed="13.89" length="2.41" shape="840.89,7317.20 841.18,7318.66 840.88,7319.53"/>
    </edge>
    <edge id=":1308502899_20" function="internal">
        <lane id=":1308502899_20_0" index="0" speed="9.72" length="8.94" width="1.00" shape="843.17,7321.90 843.36,7323.13 842.30,7326.37 839.71,7329.79"/>
    </edge>
    <edge id=":1308502899_21" function="internal">
        <lane id=":1308502899_21_0" index="0" speed="13.89" length="2.41" shape="840.88,7319.53 840.01,7319.82 838.55,7319.52"/>
    </edge>
    <edge id=":1308502899_14" function="internal">
        <lane id=":1308502899_14_0" index="0" disallow="tram rail_urban rail rail_electric ship" speed="9.72" length="7.97" shape="839.37,7328.55 839.82,7327.46 839.44,7325.98 838.23,7324.11 836.21,7321.85"/>
    </edge>
    <edge id=":1308502899_15" function="internal">
        <lane id=":1308502899_15_0" index="0" allow="bicycle" speed="5.56" length="15.50" width="1.00" shape="839.37,7328.55 850.30,7317.56"/>
    </edge>
    <edge id=":1308502899_16" function="internal">
        <lane id=":1308502899_16_0" index="0" disallow="tram rail_urban rail rail_electric ship" speed="9.72" length="9.58" shape="839.37,7328.55 842.20,7325.76 844.40,7323.95 845.98,7323.13 846.95,7323.30"/>
    </edge>
    <edge id=":1308502899_17" function="internal">
        <lane id=":1308502899_17_0" index="0" allow="bicycle" speed="5.56" length="1.88" width="1.00" shape="839.37,7328.55 839.92,7328.74 840.16,7329.00 840.09,7329.36 839.71,7329.79"/>
    </edge>
    <edge id=":1308502995_0" function="internal">
        <lane id=":1308502995_0_0" index="0" disallow="tram rail_urban rail rail_electric ship" speed="9.72" length="3.74" shape="724.34,7220.18 725.85,7223.60"/>
    </edge>
    <edge id=":1308502995_1" function="internal">
        <lane id=":1308502995_1_0" index="0" allow="bicycle" speed="5.56" length="7.96" width="1.00" shape="724.34,7220.18 722.22,7219.16 720.71,7218.59 719.15,7218.12 716.90,7217.39"/>
    </edge>
    <edge id=":1308502995_2" function="internal">
        <lane id=":1308502995_2_0" index="0" disallow="tram rail_urban rail rail_electric ship" speed="9.72" length="3.83" shape="724.34,7220.18 723.31,7219.94 721.97,7219.81 720.94,7219.63 720.82,7219.27"/>
    </edge>
    <edge id=":1308502995_3" function="internal">
        <lane id=":1308502995_3_0" index="0" disallow="tram rail_urban rail rail_electric ship" speed="13.89" length="1.92" shape="727.40,7222.18 725.85,7223.60"/>
        <lane id=":1308502995_3_1" index="1" disallow="tram rail_urban rail rail_electric ship" speed="13.89" length="1.92" shape="724.91,7219.98 723.63,7221.16"/>
    </edge>
    <edge id=":1308502995_5" function="internal">
        <lane id=":1308502995_5_0" index="0" allow="bicycle" speed="9.72" length="8.47" width="1.00" shape="724.91,7219.98 723.48,7219.91 720.99,7219.07 718.45,7218.03 716.90,7217.39"/>
    </edge>
    <edge id=":1308502995_6" function="internal">
        <lane id=":1308502995_6_0" index="0" disallow="tram rail_urban rail rail_electric ship" speed="13.89" length="3.03" shape="724.91,7219.98 723.62,7221.34 722.51,7221.67"/>
    </edge>
    <edge id=":1308502995_11" function="internal">
        <lane id=":1308502995_11_0" index="0" speed="13.89" length="3.03" shape="722.51,7221.67 721.58,7220.98 720.82,7219.27"/>
    </edge>
    <edge id=":1308502995_7" function="internal">
        <lane id=":1308502995_7_0" index="0" disallow="tram rail_urban rail rail_electric ship" speed="13.89" length="0.75" shape="719.16,7216.30 718.58,7216.84"/>
        <lane id=":1308502995_7_1" index="1" disallow="tram rail_urban rail rail_electric ship" speed="13.89" length="0.75" shape="721.34,7218.78 720.82,7219.27"/>
    </edge>
    <edge id=":1308502995_9" function="internal">
        <lane id=":1308502995_9_0" index="0" allow="bicycle" speed="9.72" length="4.81" width="1.00" shape="721.34,7218.78 721.09,7218.32 719.76,7217.96 718.10,7217.65 716.90,7217.39"/>
    </edge>
    <edge id=":1308502995_10" function="internal">
        <lane id=":1308502995_10_0" index="0" disallow="tram rail_urban rail rail_electric ship" speed="13.89" length="2.41" shape="721.34,7218.78 722.81,7218.51 723.68,7218.82"/>
    </edge>
    <edge id=":1308502995_12" function="internal">
        <lane id=":1308502995_12_0" index="0" speed="13.89" length="2.41" shape="723.68,7218.82 723.95,7219.70 723.63,7221.16"/>
    </edge>
    <edge id=":1308503016_0" function="internal">
        <lane id=":1308503016_0_0" index="0" allow="bicycle" speed="5.56" length="5.82" width="1.00" shape="763.64,7161.74 764.92,7162.81 766.23,7163.38 767.55,7163.45 768.88,7163.01"/>
    </edge>
    <edge id=":1308503016_1" function="internal">
        <lane id=":1308503016_1_0" index="0" allow="delivery bicycle pedestrian" speed="5.56" length="4.82" shape="763.64,7161.74 763.90,7163.21 763.60,7164.08 762.72,7164.35 761.27,7164.04"/>
    </edge>
    <edge id=":1308503016_2" function="internal">
        <lane id=":1308503016_2_0" index="0" allow="delivery bicycle pedestrian" speed="5.56" length="4.36" shape="760.01,7167.31 761.23,7166.58 761.85,7165.79 761.86,7164.94 761.27,7164.04"/>
    </edge>
    <edge id=":1308503016_3" function="internal">
        <lane id=":1308503016_3_0" index="0" allow="bicycle" speed="5.56" length="9.87" width="1.00" shape="760.01,7167.31 768.88,7163.01"/>
    </edge>
    <edge id=":1308503128_0" function="internal">
        <lane id=":1308503128_0_0" index="0" allow="bicycle" speed="5.56" length="2.44" width="1.00" shape="924.85,7247.13 924.38,7246.82 923.86,7246.74 923.28,7246.90 922.65,7247.30"/>
    </edge>