<?xml version="1.0" encoding="UTF-8"?>

<!-- generated on Thu Apr  6 23:07:10 2017 by SUMO duarouter Version 0.29.0
<?xml version="1.0" encoding="UTF-8"?>

<configuration xmlns:xsi="http://www.w3.org/2001/XMLSchema-instance" xsi:noNamespaceSchemaLocation="http://sumo.dlr.de/xsd/duarouterConfiguration.xsd">

    <input>
        <net-file value="osm.net.xml"/>
        <trip-files value="osm.passenger.trips.xml"/>
    </input>

    <output>
        <output-file value="osm.passenger.rou.xml"/>
    </output>

    <processing>
        <ignore-errors value="true"/>
    </processing>

    <time>
        <begin value="0"/>
        <end value="3600.0"/>
    </time>

    <report>
        <no-warnings value="true"/>
        <no-step-log value="true"/>
    </report>

</configuration>
-->

<routes xmlns:xsi="http://www.w3.org/2001/XMLSchema-instance" xsi:noNamespaceSchemaLocation="http://sumo.dlr.de/xsd/routes_file.xsd">
    <vType id="passenger" vClass="passenger"/>
    <vehicle id="veh0" type="passenger" depart="0.00" departLane="best">
        <route edges="432639702#0 432639702#1 432639702#2 432639702#3 -36982445#4 -36982445#3 -36982445#1 -36982445#0 -440764070#6 -440764070#5 -48525790#1 -121022782#5"/>
    </vehicle>
    <vehicle id="veh1" type="passenger" depart="6.09" departLane="best">
        <route edges="4518138#0 4518138#1 368142757 50098007#1 50098007#2 -50098012#6 -50098012#4 -50098012#3 -50098012#2 -50098012#1 -50098012#0 -36982445#4 -36982445#3 -36982445#1 -36982445#0 -440764070#6 -440764070#5 -440764070#4 -440764070#3 -440764070#2 -440764070#1 440764070#1"/>
    </vehicle>
    <vehicle id="veh2" type="passenger" depart="12.19" departLane="best">
        <route edges="74252168#0 -74269429#2 -284143594#1 -284143594#0 -284143592 -285099284#0 -276830731#3 -276830731#2 -276830731#1 -276830731#0 276830734#0 -276830734#0"/>
    </vehicle>
    <vehicle id="veh3" type="passenger" depart="18.28" departLane="best">
        <route edges="24530078 26440578#0 26440578#1 121022782#3 121022782#5 121022782#6 121022782#7 121022783#0 -121022783#0"/>
    </vehicle>
    <vehicle id="veh4" type="passenger" depart="24.38" departLane="best">
        <route edges="432639703#1 432639703#2 432639703#3 174056664#0 174056664#1 174056664#2 174056664#3 174056664#4 174056664#5 50098012#4 50098012#5 367746508#0 367746508#1 35200073#2"/>
    </vehicle>
    <vehicle id="veh5" type="passenger" depart="30.47" departLane="best">
        <route edges="-50098012#4 -50098012#3 -50098012#2 276830731#1 276830731#2 276830731#3 285099283 285099284#1 284143594#0 284143594#1 -74269429#1 -74269429#0 -36982444#2 36982444#2"/>
    </vehicle>
    <vehicle id="veh6" type="passenger" depart="36.56" departLane="best">
        <route edges="48525805 -121022782#6 -121022782#5 -121022782#3 -121022782#2 -121022782#1 -121022782#0 -276830734#2 -276830734#0 -117158483#3 -117158483#1 -117158483#0"/>
    </vehicle>
    <vehicle id="veh7" type="passenger" depart="42.66" departLane="best">
        <route edges="48525790#2 -457360672#4 -457360672#3 -457360672#2 -457360672#1 -457360672#0 457360671#0 457360671#1 4518137#1 4518137#2 4518137#3"/>
    </vehicle>
    <vehicle id="veh8" type="passenger" depart="48.75" departLane="best">
        <route edges="117158492#2 78884238#0 78884238#1 29595916 26440578#1 26440578#2 36982445#0 36982445#1 36982445#3 36982445#4 -36982445#4"/>
    </vehicle>
    <vehicle id="veh9" type="passenger" depart="54.85" departLane="best">
        <route edges="-31926175#7 31926175#7 276830731#0 276830731#1 276830731#2 276830731#3 285099283 -285099284#0"/>
    </vehicle>
    <vehicle id="veh10" type="passenger" depart="60.94" departLane="best">
        <route edges="50844353#1 50844353#2 123986646 74096519#0 74096519#1 100761389#0 100761389#1 -121022783#2 -121022783#1 -121022783#0 -121022782#7 -121022782#6 -121022782#5 -121022782#3 -121022782#2 -121022782#1 -121022782#0 -276830734#2 -276830734#0 276830731#0 50098012#2 50098012#3 50098012#4 50098012#5 367746508#0 384118256#1"/>
    </vehicle>
    <vehicle id="veh11" type="passenger" depart="67.03" departLane="best">
        <route edges="50098012#3 50098012#4 50098012#5 367746508#0 384118256#1 368064077 368142758#0 368142758#1 74268723 392359716#0"/>
    </vehicle>
    <vehicle id="veh12" type="passenger" depart="73.13" departLane="best">
        <route edges="74094190 50844353#0 50844353#1 50844353#2 123986646 74096519#0 74096519#1 100761389#0 100761389#1 23797680#3 440764073#0 440764073#1 457360671#0 457360671#1 4518137#1 4518137#2 4518137#3 4518137#4 4518137#5 4518137#6 296215312#0 296215312#1 74366398#4 74366398#6 36982443"/>
    </vehicle>
    <vehicle id="veh13" type="passenger" depart="79.22" departLane="best">
        <route edges="440764070#0 440764070#1 440764070#2 74271369#6 74271369#7 78884240 -121023237#1"/>
    </vehicle>
    <vehicle id="veh14" type="passenger" depart="85.32" departLane="best">
        <route edges="-50098014 -476311785 -48525790#3 -48525790#2 -440764070#4 -440764070#3 -440764070#2 -440764070#1 -440764070#0 -475827988 -74096521 -74096517 -74096522 -74096520"/>
    </vehicle>
    <vehicle id="veh16" type="passenger" depart="97.50" departLane="best">
        <route edges="-338269695#4 -338269695#3 -338269695#2 -338269695#0 117158473 338269693 78884238#1 117158492#0 117158492#1 117158492#2 256879276 -50842340#1 -50842340#0 -74094187 -23616421 74094189#0 74094189#1 -74094189#1"/>
    </vehicle>
    <vehicle id="veh17" type="passenger" depart="103.60" departLane="best">
        <route edges="39453113#0 39453113#1 74094187 23797680#0 23797680#1 23797680#2 23797680#3 440764070#0 440764070#1 440764070#2 440764070#3 440764070#4 48525790#2 457360672#5 457360672#6 457360672#7 457360672#8 457360672#9 121022826#0 121022826#1"/>
    </vehicle>
    <vehicle id="veh18" type="passenger" depart="109.69" departLane="best">
        <route edges="121023237#0 121023237#1 256879276 -50842340#1 -50842340#0 23797680#0 23797680#1 23797680#2 23797680#3 -475827988 -74096521 -475827987 -463345162#1 -463345162#0"/>
    </vehicle>
    <vehicle id="veh19" type="passenger" depart="115.79" departLane="best">
        <route edges="-74096518#1 4518137#0 4518137#1 4518137#2 4518137#3 4518137#4 4518137#5 4518137#6 296215312#0 296215312#1 296215312#2 296215312#3 296215312#4 432639703#0 432639703#1 285099283 285099284#1 74268722#2 74268722#3 74268722#4 74268722#5 74268722#6"/>
    </vehicle>
    <vehicle id="veh20" type="passenger" depart="121.88" departLane="best">
        <route edges="432639703#0 432639703#1 432639703#2 432639703#3 174056664#0 174056664#1 174056664#2 174056664#3 174056664#4 174056664#5 50098012#4 50098012#5 367746500 384118880#0"/>
    </vehicle>
    <vehicle id="veh21" type="passenger" depart="127.97" departLane="best">
        <route edges="78884238#0 78884238#1 29595916 26440578#1 121022782#3 121022782#5 48525790#1 48525790#2 48525790#3 296215312#0 296215312#1 296215312#2 296215312#3 296215312#4 432639703#0 432639703#1"/>
    </vehicle>
    <vehicle id="veh22" type="passenger" depart="134.07" departLane="best">
        <route edges="31926175#6 31926175#7 276830734#0 276830734#2 121022782#0 121022782#1 121022782#2 121022782#3 121022782#5 48525790#1 440764070#5"/>
    </vehicle>
    <vehicle id="veh23" type="passenger" depart="140.16" departLane="best">
        <route edges="50842340#1 -50842340#1 -50842340#0 23797680#0 23797680#1 23797680#2 23797680#3 440764070#0 440764070#1 440764070#2 440764070#3 440764070#4 48525790#2"/>
    </vehicle>
    <vehicle id="veh24" type="passenger" depart="146.26" departLane="best">
        <route edges="-50098014 -476311785 -48525790#3 -48525790#2 -48525790#1 121022782#6 121022782#7 121022783#0 121022783#1 -121022783#1"/>
    </vehicle>
    <vehicle id="veh25" type="passenger" depart="152.35" departLane="best">
        <route edges="116901193#0 116901193#1 256879273#4 43710647#0 43710647#1 43710647#2 43710647#3 117158492#0 117158492#1 117158492#2 256879276 -50842340#1 -50842340#0 -74094187 -23616421 50844353#0 -50844353#0"/>
    </vehicle>
    <vehicle id="veh26" type="passenger" depart="158.44" departLane="best">
        <route edges="-50098008 -50098012#3 -50098012#2 276830731#1 276830731#2 276830731#3 285099283 285099284#1 284143594#0 284143594#1 -74269429#1 74269429#1"/>
    </vehicle>
    <vehicle id="veh27" type="passenger" depart="164.54" departLane="best">
        <route edges="74096519#1 100761389#0 100761389#1 23797680#3 440764073#0 440764073#1 457360671#0 457360671#1 4518137#1 4518137#2 4518137#3 4518137#4 4518137#5 4518137#6 296215312#0 296215312#1 296215312#2 296215312#3 296215312#4 432639703#0 432639703#1 285099283 285099284#1 284143594#0 284143594#1 -74269429#1 -74269429#0"/>
    </vehicle>
    <vehicle id="veh28" type="passenger" depart="170.63" departLane="best">
        <route edges="432639703#4 432639703#5 432639703#6 74268720#0 -74268720#2 4518138#0 4518138#1 368142757 50098007#1 50098007#2 -50098012#6 -50098012#4 -50098012#3 -50098012#2 -276830731#0 276830734#0 276830734#2 74366420#1 74366420#2 43710647#2 43710647#3 117158492#0 117158492#1 117158492#2 256879276 -50842340#1 -50842340#0 23797680#0 23797680#1"/>
    </vehicle>
    <vehicle id="veh29" type="passenger" depart="176.73" departLane="best">
        <route edges="-74096518#1 4518137#0 4518137#1 4518137#2 4518137#3 4518137#4 4518137#5 4518137#6 -48525790#3 -48525790#2"/>
    </vehicle>
    <vehicle id="veh30" type="passenger" depart="182.82" departLane="best">
        <route edges="338269695#0 -338269695#0 117158473 338269693 78884238#1 256879273#0 256879273#1 256879273#2 256879273#3 256879273#4 117158483#3 276830731#0 50098012#2 50098012#3 50098012#4 50098012#5 -50098012#6"/>
    </vehicle>
    <vehicle id="veh31" type="passenger" depart="188.91" departLane="best">
        <route edges="368142757 50098007#1 50098007#2 -50098012#6 -50098012#4 -50098012#3 -50098012#2 -50098012#1 -50098012#0 -36982445#4 -36982445#3 -36982445#1 -36982445#0 -440764070#6 -440764070#5 -440764070#4 -440764070#3 -440764070#2 -440764070#1 -440764070#0 -475827988 -74096521 -74096517 -74096522 -74096520 74096520"/>
    </vehicle>
    <vehicle id="veh32" type="passenger" depart="195.01" departLane="best">
        <route edges="232195210#0 368144664#1 368144663#0 368144663#2 50098007#1 50098007#2 -50098012#6 -50098012#4 -50098012#3 -50098012#2 -50098012#1 -50098012#0 -36982445#4 -36982445#3 -36982445#1 -36982445#0 -440764070#6 -440764070#5 -440764070#4 -440764070#3 -440764070#2 -440764070#1 -440764070#0 -475827988 -74096521 -475827987"/>
    </vehicle>
    <vehicle id="veh33" type="passenger" depart="201.10" departLane="best">
        <route edges="86097152#1 86097152#2 23797680#0 23797680#1 23797680#2 -121022783#2 -121022783#1 -121022783#0 -121022782#7 -121022782#6 -121022782#5 -121022782#3 -121022782#2 -121022782#1 -121022782#0 -276830734#2 -276830734#0 276830731#0 50098012#2 31926171#1 31926171#2 31926171#3"/>
    </vehicle>
    <vehicle id="veh34" type="passenger" depart="207.20" departLane="best">
        <route edges="-31926175#7 31926175#7 276830734#0 276830734#2 74366420#1 74366420#2 43710647#2 43710647#3 117158492#0 117158492#1 117158492#2 -121023237#1"/>
    </vehicle>
    <vehicle id="veh35" type="passenger" depart="213.29" departLane="best">
        <route edges="-338269695#5 -338269695#4 -338269695#3 -338269695#2 -338269695#0 117158473 338269693 78884238#1 117158492#0 117158492#1 117158492#2 256879276 -50842340#1 -50842340#0 -74094187 -23616421 -74094190 39453113#0 39453113#1"/>
    </vehicle>
    <vehicle id="veh37" type="passenger" depart="225.48" departLane="best">
        <route edges="-284143594#1 -284143594#0 -284143592 -285099284#0 432639703#2 432639703#3 174056664#0 174056664#1 174056664#2 174056664#3"/>
    </vehicle>
    <vehicle id="veh38" type="passenger" depart="231.57" departLane="best">
        <route edges="86097152#1 86097152#2 50842340#0 50842340#1 39453111 78884238#0 78884238#1 256879273#0 74366420#4 338269695#4"/>
    </vehicle>
    <vehicle id="veh39" type="passenger" depart="237.67" departLane="best">
        <route edges="74366402#0 74269433#0 74269433#1 74268722#4 74268722#5 74268722#6 74268722#8 476311784 71359376#1 71359376#2 71359376#3"/>
    </vehicle>
    <vehicle id="veh40" type="passenger" depart="243.76" departLane="best">
        <route edges="-121022782#2 121022782#2 121022782#3 121022782#5 121022782#6 121022782#7 121022783#0 121022783#1 121022783#2 23797680#3 440764073#0 440764073#1 457360671#0 457360671#1 457360671#2"/>
    </vehicle>
    <vehicle id="veh41" type="passenger" depart="249.86" departLane="best">
        <route edges="438224094#0 438224094#1 438224094#2 463345162#2 74096521 475827988 440764070#0 440764070#1 440764070#2 440764070#3 440764070#4 440764070#5 440764070#6 36982445#0 36982445#1 36982445#3 36982445#4 74366420#0 74366420#1 74366420#2 74366420#4 338269695#4 338269695#5"/>
    </vehicle>
    <vehicle id="veh42" type="passenger" depart="255.95" departLane="best">
        <route edges="-74096518#1 4518137#0 4518137#1 4518137#2 4518137#3 4518137#4 4518137#5 4518137#6 296215312#0 296215312#1 296215312#2 296215312#3 296215312#4 432639703#0 432639703#1 432639703#2"/>
    </vehicle>
    <vehicle id="veh43" type="passenger" depart="262.04" departLane="best">
        <route edges="256879270 48525790#0 48525790#1 48525790#2 48525790#3 296215313 71359376#1 71359376#2 74271369#1"/>
    </vehicle>
    <vehicle id="veh44" type="passenger" depart="268.14" departLane="best">
        <route edges="296215312#1 296215312#2 296215312#3 296215312#4 432639702#0 432639702#1 432639702#2 432639702#3 -36982445#4 -36982445#3 -36982445#1 -36982445#0 -440764070#6 -440764070#5 -440764070#4"/>
    </vehicle>
    <vehicle id="veh45" type="passenger" depart="274.23" departLane="best">
        <route edges="74268722#4 74268722#5 74268722#6 74268722#8 476311784 -476311785 -48525790#3 -48525790#2 -48525790#1 121022782#6 121022782#7 74271369#7 78884240 256879276 -50842340#1 -50842340#0 -74094187 -23616421 74094189#0 74094189#1 74094189#2"/>
    </vehicle>
    <vehicle id="veh46" type="passenger" depart="280.33" departLane="best">
        <route edges="-74268720#4 -74268720#2 4518138#0 4518138#1 368142757 50098007#1 50098007#2 -50098012#6 -50098012#4 -50098012#3 -50098012#2 276830731#1 276830731#2 276830731#3 285099283 285099284#1 74268722#2 74268722#3 74269433#2 432639703#0 432639703#1"/>
    </vehicle>
    <vehicle id="veh47" type="passenger" depart="286.42" departLane="best">
        <route edges="37055743#0 37055743#1 121023237#0 121023237#1 78884238#0 78884238#1 29595916 26440578#1 26440578#2 36982445#0 36982445#1 36982445#3 -36982445#3"/>
    </vehicle>
    <vehicle id="veh48" type="passenger" depart="292.51" departLane="best">
        <route edges="457360672#9 432639702#2 432639702#3 74366420#0 74366420#1 74366420#2 74366420#4 338269695#4 338269695#5"/>
    </vehicle>
    <vehicle id="veh49" type="passenger" depart="298.61" departLane="best">
        <route edges="475827988 440764070#0 440764070#1 440764070#2 440764070#3 440764070#4 440764070#5 440764070#6 36982445#0 36982445#1 36982445#3 36982445#4 74366420#0 74366420#1 74366420#2 74366420#4 338269695#4 338269695#5"/>
    </vehicle>
    <vehicle id="veh50" type="passenger" depart="304.70" departLane="best">
        <route edges="-121022782#7 -121022782#6 -121022782#5 -121022782#3 -121022782#2 -121022782#1 -121022782#0 -276830734#2 -276830734#0 276830731#0 276830731#1 276830731#2 276830731#3 285099283 285099284#1 74268722#2 74268722#3"/>
    </vehicle>
    <vehicle id="veh51" type="passenger" depart="310.80" departLane="best">
        <route edges="74096520 74096522 74096517 74096521 475827988 440764070#0 440764070#1 440764070#2 440764070#3 440764070#4 48525790#2 48525790#3 296215313 50098014"/>
    </vehicle>
    <vehicle id="veh52" type="passenger" depart="316.89" departLane="best">
        <route edges="-74269429#1 -74269429#0 74269433#0 74269433#1 74269433#2 432639702#0 432639702#1 432639702#2 432639702#3 -36982445#4 -36982445#3 -36982445#1 -36982445#0 -440764070#6 -440764070#5 -440764070#4 -440764070#3 -440764070#2 -440764070#1 -440764070#0 -475827988 -74096521 -475827987 438224094#3 438224094#4 -23744507"/>
    </vehicle>
    <vehicle id="veh53" type="passenger" depart="322.98" departLane="best">
        <route edges="74096520 74096522 74096517 74096521 475827988 440764073#0 440764073#1 457360671#0 457360671#1 4518137#1 4518137#2 4518137#3 4518137#4 4518137#5 4518137#6 296215312#0 296215312#1 74366398#4 74366398#6 36982444#0 36982444#1 36982444#2 74269433#0"/>
    </vehicle>
    <vehicle id="veh54" type="passenger" depart="329.08" departLane="best">
        <route edges="-31926175#2 31926175#2 31926175#3 31926175#6 31926175#7 276830734#0 276830734#2 121022782#0 121022782#1 121022782#2 121022782#3 121022782#5 121022782#6 121022782#7 121022783#0 121022783#1 121022783#2 23797680#3 -475827988 -74096521 475827990 476610620 476610619#0 476610619#1 30735293#0 30735293#1 30735293#2"/>
    </vehicle>
    <vehicle id="veh56" type="passenger" depart="341.27" departLane="best">
        <route edges="463345162#0 463345162#1 463345162#2 74096521 475827988 440764070#0 440764070#1 440764070#2 440764070#3 440764070#4 440764070#5 440764070#6 36982445#0 36982445#1 36982445#3 36982445#4 74366420#0 -276830734#2 -276830734#0 -31926175#7 -31926175#6 -31926175#3"/>
    </vehicle>
    <vehicle id="veh57" type="passenger" depart="347.36" departLane="best">
        <route edges="26440578#2 36982445#0 36982445#1 36982445#3 36982445#4 50098012#0 50098012#1 50098012#2 50098012#3 50098012#4 50098012#5 367746508#0 367746508#1"/>
    </vehicle>
    <vehicle id="veh58" type="passenger" depart="353.45" departLane="best">
        <route edges="-74096518#1 -74096518#0 -476612031 -476610618 -476610619#1 -476610619#0 -476610620 -475827990 -74096517 -74096522 -74096520 -74096519#1 -74096519#0 -123986646 -50844353#2 -50844353#1 -50844353#0 -74094190 39453113#0 39453113#1 74094187 -74094187 -23616421 74094189#0 74094189#1 74094189#2"/>
    </vehicle>
    <vehicle id="veh60" type="passenger" depart="365.64" departLane="best">
        <route edges="31926171#3 432639703#3 174056664#0 174056664#1 -121022826#3 -121022826#2 -121022826#1 -121022826#0 -457360672#9 -457360672#8 -457360672#7 -457360672#6 -457360672#5 -457360672#4 -457360672#3 457360672#3"/>
    </vehicle>
    <vehicle id="veh62" type="passenger" depart="377.83" departLane="best">
        <route edges="86097152#0 86097152#1 86097152#2 23797680#0 23797680#1 23797680#2 23797680#3 440764073#0 440764073#1 457360671#0 457360671#1 4518137#1 4518137#2 4518137#3 4518137#4 4518137#5 4518137#6 296215312#0 296215312#1 296215312#2 296215312#3 296215312#4 432639703#0 432639703#1 432639703#2 432639703#3 432639703#4 432639703#5 432639703#6"/>
    </vehicle>
    <vehicle id="veh63" type="passenger" depart="383.92" departLane="best">
        <route edges="255861962#2 121023237#0 121023237#1 78884238#0 78884238#1 256879273#0 256879273#1 256879273#2 256879273#3 256879273#4 50098013#0 31926175#6"/>
    </vehicle>
    <vehicle id="veh64" type="passenger" depart="390.02" departLane="best">
        <route edges="-36982445#1 -36982445#0 -440764070#6 -440764070#5 48525790#2 48525790#3 296215313 -476311785"/>
    </vehicle>
    <vehicle id="veh65" type="passenger" depart="396.11" departLane="best">
        <route edges="117158492#1 117158492#2 256879276 -50842340#1 -50842340#0 23797680#0 23797680#1 23797680#2 23797680#3 440764073#0 440764073#1 457360671#0 457360671#1 4518137#1 4518137#2 4518137#3 4518137#4 4518137#5 4518137#6 296215312#0 296215312#1 74366398#4 74366398#6 36982444#0 36982444#1"/>
    </vehicle>
    <vehicle id="veh66" type="passenger" depart="402.21" departLane="best">
        <route edges="-50098014 -476311785 -48525790#3 -48525790#2 -440764070#4 -440764070#3 -440764070#2 -440764070#1 -440764070#0 -475827988"/>
    </vehicle>
    <vehicle id="veh68" type="passenger" depart="414.39" departLane="best">
        <route edges="-50098014 -476311785 296215312#0 296215312#1 296215312#2 296215312#3 296215312#4 432639703#0 432639703#1 432639703#2 432639703#3 -74268717#1 -74268717#0 -74252168#3 74252168#3"/>
    </vehicle>
    <vehicle id="veh70" type="passenger" depart="426.58" departLane="best">
        <route edges="26440578#1 -121022782#2 -121022782#1 -121022782#0 -276830734#2 -276830734#0 276830731#0 50098012#2 50098012#3 50098012#4 50098012#5 367746500 384118880#0 384118880#1 35200073#0 -31879556#6 -31879556#5 48525793"/>
    </vehicle>
    <vehicle id="veh71" type="passenger" depart="432.68" departLane="best">
        <route edges="4518137#3 4518137#4 74271369#2 74271369#3 74271369#4 74271369#5 -440764070#2 -440764070#1 -440764070#0 -475827988 -74096521 -475827987 438224094#3 438224094#4 438224094#5 438224094#6 438224094#7"/>
    </vehicle>
    <vehicle id="veh72" type="passenger" depart="438.77" departLane="best">
        <route edges="74094190 50844353#0 50844353#1 50844353#2 123986646 74096519#0 74096519#1 100761389#0 100761389#1 23797680#3 440764073#0 440764073#1 457360671#0 457360671#1 4518137#1 4518137#2 4518137#3 4518137#4 4518137#5 4518137#6 -48525790#3"/>
    </vehicle>
    <vehicle id="veh73" type="passenger" depart="444.86" departLane="best">
        <route edges="-477654615#1 477654615#1 74096519#0 74096519#1 100761389#0 100761389#1 -121022783#2 -121022783#1 -121022783#0 -121022782#7 -121022782#6 -121022782#5 -121022782#3 -121022782#2 -121022782#1 -121022782#0 -276830734#2 -276830734#0 276830731#0"/>
    </vehicle>
    <vehicle id="veh74" type="passenger" depart="450.96" departLane="best">
        <route edges="24530078 26440578#0 26440578#1 121022782#3 121022782#5 121022782#6 121022782#7 74271369#7 78884240 256879276 -50842340#1 -50842340#0 -74094187 -23616421 74094189#0 74094189#1 -74094189#1"/>
    </vehicle>
    <vehicle id="veh75" type="passenger" depart="457.05" departLane="best">
        <route edges="-74094189#2 -74094189#1 -74094189#0 23616421 74094187 23797680#0 23797680#1 23797680#2 23797680#3 440764073#0 440764073#1 457360671#0 457360671#1 4518137#1 4518137#2 4518137#3 4518137#4 4518137#5 4518137#6 296215312#0 296215312#1 296215312#2 296215312#3 296215312#4 432639703#0 432639703#1 432639703#2 432639703#3 -74268717#1 -74268717#0 74268722#0"/>
    </vehicle>
    <vehicle id="veh76" type="passenger" depart="463.15" departLane="best">
        <route edges="256879266 256879269 256879270 48525790#0 48525790#1 48525790#2 48525790#3 296215313 71359376#1 71359376#2 71359376#3"/>
    </vehicle>
    <vehicle id="veh77" type="passenger" depart="469.24" departLane="best">
        <route edges="31926175#1 31926175#2 31926175#3 31926175#6 31926175#7 276830734#0 276830734#2 74366420#1 74366420#2 43710647#2 43710647#3 117158492#0 117158492#1 117158492#2 256879276 -50842340#1 -50842340#0 -74094187 -23616421"/>
    </vehicle>
    <vehicle id="veh78" type="passenger" depart="475.33" departLane="best">
        <route edges="86097152#2 23797680#0 23797680#1 23797680#2 23797680#3 440764070#0 440764070#1 440764070#2 440764070#3 440764070#4 48525790#2 48525790#3 296215313 50098014"/>
    </vehicle>
    <vehicle id="veh79" type="passenger" depart="481.43" departLane="best">
        <route edges="50844353#2 -50844353#2 -50844353#1 -50844353#0 -74094190 39453113#0 39453113#1 74094187 50842340#0 50842340#1 39453111 -121023237#1 -121023237#0 -37055743#1"/>
    </vehicle>
    <vehicle id="veh80" type="passenger" depart="487.52" departLane="best">
        <route edges="276830734#0 276830734#2 121022782#0 121022782#1 121022782#2 121022782#3 121022782#5 121022782#6 121022782#7 121022783#0 121022783#1 121022783#2 23797680#3 -475827988 -74096521 -475827987 -463345162#1"/>
    </vehicle>
    <vehicle id="veh81" type="passenger" depart="493.62" departLane="best">
        <route edges="232195210#0 368144664#1 368144663#0 368144663#2 50098007#1 50098007#2 -50098012#6 -50098012#4 -50098012#3 -50098012#2 -50098012#1 -50098012#0 -36982445#4 -36982445#3 -36982445#1 -36982445#0 -440764070#6 -440764070#5 -440764070#4 -440764070#3 -440764070#2 -440764070#1 -440764070#0 -475827988 -74096521 -475827987 438224094#3 438224094#4 -23744507"/>
    </vehicle>
    <vehicle id="veh82" type="passenger" depart="499.71" departLane="best">
        <route edges="174056664#1 174056664#2 174056664#3 174056664#4 174056664#5 -50098012#3 -50098012#2 -276830731#0 276830734#0 276830734#2 74366420#1 74366420#2"/>
    </vehicle>
    <vehicle id="veh83" type="passenger" depart="505.80" departLane="best">
        <route edges="-74096518#1 4518137#0 4518137#1 4518137#2 4518137#3 4518137#4 4518137#5 4518137#6 -48525790#3 457360672#5 457360672#6 457360672#7 457360672#8 457360672#9 121022826#0 121022826#1 121022826#2 121022826#3 174056664#2 174056664#3 174056664#4 174056664#5 50098012#4 50098012#5 367746500 384118880#0 384118880#1 35200073#0 -31879556#6 -31879556#5 48525793"/>
    </vehicle>
    <vehicle id="veh84" type="passenger" depart="511.90" departLane="best">
        <route edges="31926175#6 31926175#7 276830734#0 276830734#2 121022782#0 121022782#1 121022782#2 121022782#3 121022782#5 121022782#6 121022782#7 121022783#0 121022783#1 121022783#2 23797680#3 440764073#0 440764073#1 457360671#0 457360671#1 457360671#2"/>
    </vehicle>
    <vehicle id="veh85" type="passenger" depart="517.99" departLane="best">
        <route edges="-457360672#5 457360672#5 457360672#6 457360672#7 457360672#8 457360672#9 121022826#0 121022826#1 276830731#2 276830731#3 285099283 285099284#1 284143594#0 284143594#1 74269429#2 -74252168#1"/>
    </vehicle>
    <vehicle id="veh86" type="passenger" depart="524.09" departLane="best">
        <route edges="74366398#6 36982443"/>
    </vehicle>
    <vehicle id="veh87" type="passenger" depart="530.18" departLane="best">
        <route edges="31926175#0 31926175#1 31926175#2 31926175#3 31926175#6 31926175#7 276830734#0 276830734#2 121022782#0 121022782#1 121022782#2 121022782#3 121022782#5 121022782#6 121022782#7 121022783#0 121022783#1 121022783#2 23797680#3 -475827988 475827988"/>
    </vehicle>
    <vehicle id="veh88" type="passenger" depart="536.27" departLane="best">
        <route edges="-276830734#0 276830731#0 276830731#1 276830731#2 276830731#3 285099283 285099284#1 284143594#0 284143594#1 -74269429#1 -74269429#0 -36982444#2 -36982444#1 -36982444#0 36982443"/>
    </vehicle>
    <vehicle id="veh90" type="passenger" depart="548.46" departLane="best">
        <route edges="36982444#0 36982444#1 36982444#2 74269433#0 74269433#1 74269433#2 432639702#0 432639702#1 432639702#2 432639702#3 -36982445#4 -36982445#3 -36982445#1 -36982445#0 -440764070#6 -440764070#5 -440764070#4 -440764070#3 -440764070#2 -440764070#1 -440764070#0 440764070#0"/>
    </vehicle>
    <vehicle id="veh91" type="passenger" depart="554.56" departLane="best">
        <route edges="-50842340#1 -50842340#0 23797680#0 23797680#1 23797680#2 -121022783#2 -121022783#1 -121022783#0 -121022782#7 -121022782#6 -121022782#5 -121022782#3 -121022782#2 -121022782#1 -121022782#0 -276830734#2 -276830734#0 -31926175#7 -31926175#6 -31926175#3 -31926175#2 -31926175#1 -31926175#0"/>
    </vehicle>
    <vehicle id="veh92" type="passenger" depart="560.65" departLane="best">
        <route edges="74252168#0 -74269429#2 -284143594#1 -284143594#0 -284143592 -285099284#0 -276830731#3 -276830731#2 -121022826#1 -121022826#0 -457360672#9 -457360672#8 -457360672#7 -457360672#6 -457360672#5 -48525790#2"/>
    </vehicle>
    <vehicle id="veh93" type="passenger" depart="566.74" departLane="best">
        <route edges="23797680#3 440764073#0 440764073#1 457360671#0 457360671#1 4518137#1 4518137#2 4518137#3 4518137#4 4518137#5 4518137#6 296215312#0 296215312#1 74366398#4 74366398#6 36982443"/>
    </vehicle>
    <vehicle id="veh96" type="passenger" depart="585.03" departLane="best">
        <route edges="43710647#0 43710647#1 256879273#1 256879273#2 256879273#3 256879273#4 117158483#3 276830731#0 276830731#1 276830731#2 276830731#3 285099283 285099284#1 284143594#0 284143594#1 74269429#2 -74252168#1"/>
    </vehicle>
    <vehicle id="veh97" type="passenger" depart="591.12" departLane="best">
        <route edges="116901193#0 116901193#1 256879273#4 117158483#3 276830731#0 276830731#1 276830731#2 276830731#3 285099283 285099284#1 74268722#2 74268722#3 74268722#4 74268722#5 74268722#6 74268722#8 476311784"/>
    </vehicle>
    <vehicle id="veh100" type="passenger" depart="609.40" departLane="best">
        <route edges="-74096518#1 4518137#0 4518137#1 4518137#2 4518137#3 4518137#4 4518137#5 4518137#6 296215312#0 296215312#1 296215312#2 296215312#3 296215312#4 432639703#0 432639703#1 285099283 285099284#1 74268722#2 74268722#3 74268722#4 74268722#5"/>
    </vehicle>
    <vehicle id="veh101" type="passenger" depart="615.50" departLane="best">
        <route edges="74096521 -74096521 -74096517 -74096522 -74096520 -74096519#1 -74096519#0 -123986646 -50844353#2 -50844353#1 -50844353#0 -74094190 39453113#0 39453113#1 74094187 -74094187 -23616421 74094189#0 74094189#1 74094189#2"/>
    </vehicle>
    <vehicle id="veh102" type="passenger" depart="621.59" departLane="best">
        <route edges="121022826#3 174056664#2 174056664#3 174056664#4 174056664#5 -50098012#3 -50098012#2 -276830731#0 276830734#0 276830734#2 74366420#1 74366420#2 43710647#2 43710647#3 117158492#0 117158492#1 117158492#2 -121023237#1 -121023237#0 -37055743#1 -37055743#0"/>
    </vehicle>
    <vehicle id="veh103" type="passenger" depart="627.68" departLane="best">
        <route edges="50098012#5 -50098012#6 -50098012#4 -50098012#3 -50098012#2 -50098012#1 -50098012#0 -36982445#4 -36982445#3 -36982445#1 -36982445#0 -440764070#6 -440764070#5 48525790#2 -457360672#4 -457360672#3 -457360672#2 -457360672#1 -457360672#0 457360671#0 457360671#1 4518137#1 4518137#2 4518137#3 4518137#4 4518137#5"/>
    </vehicle>
    <vehicle id="veh104" type="passenger" depart="633.78" departLane="best">